<?xml version="1.0" encoding="UTF-8"?>

<!-- generated on 2025-10-28 20:38:54 by Eclipse SUMO netedit Version 1.24.0
-->

<routes xmlns:xsi="http://www.w3.org/2001/XMLSchema-instance" xsi:noNamespaceSchemaLocation="http://sumo.dlr.de/xsd/routes_file.xsd">
    <!-- Vehicles, persons and containers (sorted by depart) -->
    <flow id="f_0" begin="0.00" from="E14" to="E20" end="3600.00" vehsPerHour="600"/>
    <flow id="f_1" begin="0.00" from="E14" to="E15" end="3600.00" vehsPerHour="600"/>
    <flow id="f_2" begin="0.00" from="E14" to="-E19" end="3600.00" vehsPerHour="600"/>
    <flow id="f_3" begin="0.00" from="-E15" to="-E14" end="3600.00" vehsPerHour="800"/>
    <flow id="f_4" begin="0.00" from="-E15" to="E20" end="3600.00" vehsPerHour="800"/>
    <flow id="f_5" begin="0.00" from="-E15" to="-E19" end="3600.00" vehsPerHour="800"/>
    <flow id="f_6" begin="0.00" from="-E20" to="-E19" end="3600.00" vehsPerHour="1000"/>
    <flow id="f_7" begin="0.00" from="E19" to="E20" end="3600.00" number="1200"/>
    <flow id="f_8" begin="0.00" from="E19" to="E15" end="3600.00" number="1200"/>
    <flow id="f_9" begin="0.00" from="E19" to="-E14" end="3600.00" number="1200"/>
</routes>
