<?xml version="1.0" encoding="UTF-8"?>

<!-- generated on 2025-10-28 19:51:05 by Eclipse SUMO netedit Version 1.24.0
<neteditConfiguration xmlns:xsi="http://www.w3.org/2001/XMLSchema-instance" xsi:noNamespaceSchemaLocation="http://sumo.dlr.de/xsd/neteditConfiguration.xsd">

    <input>
        <route-files value="C:\SUMO\mp_intersection\mp_intersection.rou.xml"/>
        <sumo-net-file value="C:\SUMO\mp_intersection\mp_intersection.net.xml"/>
    </input>

    <output>
        <output-file value="C:\SUMO\mp_intersection\mp_intersection.net.xml"/>
    </output>

    <processing>
        <geometry.min-radius.fix.railways value="false"/>
        <geometry.avoid-overlap value="false"/>
        <geometry.max-grade.fix value="false"/>
        <offset.disable-normalization value="true"/>
        <lefthand value="0"/>
    </processing>

    <junctions>
        <no-turnarounds value="true"/>
        <junctions.corner-detail value="5"/>
        <junctions.limit-turn-speed value="5.50"/>
        <rectangular-lane-cut value="0"/>
    </junctions>

    <pedestrian>
        <walkingareas value="0"/>
    </pedestrian>

</neteditConfiguration>
-->

<net version="1.20" junctionCornerDetail="5" limitTurnSpeed="5.50" avoidOverlap="0" xmlns:xsi="http://www.w3.org/2001/XMLSchema-instance" xsi:noNamespaceSchemaLocation="http://sumo.dlr.de/xsd/net_file.xsd">

    <location netOffset="0.00,0.00" convBoundary="-100.00,-100.00,100.00,100.00" origBoundary="-10000000000.00,-10000000000.00,10000000000.00,10000000000.00" projParameter="!"/>

    <edge id=":J59_0" function="internal">
        <lane id=":J59_0_0" index="0" speed="6.51" length="9.03" shape="-1.60,7.20 -1.95,4.75 -3.00,3.00 -4.75,1.95 -7.20,1.60"/>
    </edge>
    <edge id=":J59_1" function="internal">
        <lane id=":J59_1_0" index="0" speed="13.89" length="14.40" shape="-1.60,7.20 -1.60,-7.20"/>
    </edge>
    <edge id=":J59_2" function="internal">
        <lane id=":J59_2_0" index="0" speed="8.00" length="4.07" shape="-1.60,7.20 -1.05,3.35 -0.96,3.20"/>
    </edge>
    <edge id=":J59_12" function="internal">
        <lane id=":J59_12_0" index="0" speed="8.00" length="10.13" shape="-0.96,3.20 0.60,0.60 3.35,-1.05 7.20,-1.60"/>
    </edge>
    <edge id=":J59_3" function="internal">
        <lane id=":J59_3_0" index="0" speed="6.51" length="9.03" shape="7.20,1.60 4.75,1.95 3.00,3.00 1.95,4.75 1.60,7.20"/>
    </edge>
    <edge id=":J59_4" function="internal">
        <lane id=":J59_4_0" index="0" speed="13.89" length="14.40" shape="7.20,1.60 -7.20,1.60"/>
    </edge>
    <edge id=":J59_5" function="internal">
        <lane id=":J59_5_0" index="0" speed="8.00" length="4.07" shape="7.20,1.60 3.35,1.05 3.20,0.96"/>
    </edge>
    <edge id=":J59_13" function="internal">
        <lane id=":J59_13_0" index="0" speed="8.00" length="10.13" shape="3.20,0.96 0.60,-0.60 -1.05,-3.35 -1.60,-7.20"/>
    </edge>
    <edge id=":J59_6" function="internal">
        <lane id=":J59_6_0" index="0" speed="6.51" length="9.03" shape="1.60,-7.20 1.95,-4.75 3.00,-3.00 4.75,-1.95 7.20,-1.60"/>
    </edge>
    <edge id=":J59_7" function="internal">
        <lane id=":J59_7_0" index="0" speed="13.89" length="14.40" shape="1.60,-7.20 1.60,7.20"/>
    </edge>
    <edge id=":J59_8" function="internal">
        <lane id=":J59_8_0" index="0" speed="8.00" length="4.07" shape="1.60,-7.20 1.05,-3.35 0.96,-3.20"/>
    </edge>
    <edge id=":J59_14" function="internal">
        <lane id=":J59_14_0" index="0" speed="8.00" length="10.13" shape="0.96,-3.20 -0.60,-0.60 -3.35,1.05 -7.20,1.60"/>
    </edge>
    <edge id=":J59_9" function="internal">
        <lane id=":J59_9_0" index="0" speed="6.51" length="9.03" shape="-7.20,-1.60 -4.75,-1.95 -3.00,-3.00 -1.95,-4.75 -1.60,-7.20"/>
    </edge>
    <edge id=":J59_10" function="internal">
        <lane id=":J59_10_0" index="0" speed="13.89" length="14.40" shape="-7.20,-1.60 7.20,-1.60"/>
    </edge>
    <edge id=":J59_11" function="internal">
        <lane id=":J59_11_0" index="0" speed="8.00" length="4.07" shape="-7.20,-1.60 -3.35,-1.05 -3.20,-0.96"/>
    </edge>
    <edge id=":J59_15" function="internal">
        <lane id=":J59_15_0" index="0" speed="8.00" length="10.13" shape="-3.20,-0.96 -0.60,0.60 1.05,3.35 1.60,7.20"/>
    </edge>

    <edge id="-E14" from="J59" to="J58" priority="-1">
        <lane id="-E14_0" index="0" speed="13.89" length="92.80" shape="-7.20,1.60 -100.00,1.60"/>
    </edge>
    <edge id="-E15" from="J60" to="J59" priority="-1">
        <lane id="-E15_0" index="0" speed="13.89" length="92.80" shape="100.00,1.60 7.20,1.60"/>
    </edge>
    <edge id="-E19" from="J59" to="J78" priority="-1">
        <lane id="-E19_0" index="0" speed="13.89" length="92.80" shape="-1.60,-7.20 -1.60,-100.00"/>
    </edge>
    <edge id="-E20" from="J79" to="J59" priority="-1">
        <lane id="-E20_0" index="0" speed="13.89" length="92.80" shape="-1.60,100.00 -1.60,7.20"/>
    </edge>
    <edge id="E14" from="J58" to="J59" priority="-1">
        <lane id="E14_0" index="0" speed="13.89" length="92.80" shape="-100.00,-1.60 -7.20,-1.60"/>
    </edge>
    <edge id="E15" from="J59" to="J60" priority="-1">
        <lane id="E15_0" index="0" speed="13.89" length="92.80" shape="7.20,-1.60 100.00,-1.60"/>
    </edge>
    <edge id="E19" from="J78" to="J59" priority="-1">
        <lane id="E19_0" index="0" speed="13.89" length="92.80" shape="1.60,-100.00 1.60,-7.20"/>
    </edge>
    <edge id="E20" from="J59" to="J79" priority="-1">
        <lane id="E20_0" index="0" speed="13.89" length="92.80" shape="1.60,7.20 1.60,100.00"/>
    </edge>

    <tlLogic id="J59" type="static" programID="0" offset="0">
        <phase duration="42" state="GGgrrrGGgrrr"/>
        <phase duration="3"  state="yyyrrryyyrrr"/>
        <phase duration="42" state="rrrGGgrrrGGg"/>
        <phase duration="3"  state="rrryyyrrryyy"/>
    </tlLogic>

    <junction id="J58" type="dead_end" x="-100.00" y="0.00" incLanes="-E14_0" intLanes="" shape="-100.00,0.00 -100.00,3.20 -100.00,0.00"/>
    <junction id="J59" type="traffic_light" x="0.00" y="0.00" incLanes="-E20_0 -E15_0 E19_0 E14_0" intLanes=":J59_0_0 :J59_1_0 :J59_12_0 :J59_3_0 :J59_4_0 :J59_13_0 :J59_6_0 :J59_7_0 :J59_14_0 :J59_9_0 :J59_10_0 :J59_15_0" shape="-3.20,7.20 3.20,7.20 3.64,4.98 4.20,4.20 4.98,3.64 5.98,3.31 7.20,3.20 7.20,-3.20 4.98,-3.64 4.20,-4.20 3.64,-4.98 3.31,-5.98 3.20,-7.20 -3.20,-7.20 -3.64,-4.98 -4.20,-4.20 -4.98,-3.64 -5.98,-3.31 -7.20,-3.20 -7.20,3.20 -4.98,3.64 -4.20,4.20 -3.64,4.98 -3.31,5.98">
        <request index="0"  response="000000000000" foes="000100010000" cont="0"/>
        <request index="1"  response="100000100000" foes="111100110000" cont="0"/>
        <request index="2"  response="100111100000" foes="110111110000" cont="1"/>
        <request index="3"  response="000010000000" foes="100010000000" cont="0"/>
        <request index="4"  response="000110000111" foes="100110000111" cont="0"/>
        <request index="5"  response="111110000110" foes="111110000110" cont="1"/>
        <request index="6"  response="000000000000" foes="010000000100" cont="0"/>
        <request index="7"  response="100000100000" foes="110000111100" cont="0"/>
        <request index="8"  response="100000100011" foes="110000110111" cont="1"/>
        <request index="9"  response="000000000010" foes="000000100010" cont="0"/>
        <request index="10" response="000111000110" foes="000111100110" cont="0"/>
        <request index="11" response="000110011110" foes="000110111110" cont="1"/>
    </junction>
    <junction id="J60" type="dead_end" x="100.00" y="0.00" incLanes="E15_0" intLanes="" shape="100.00,0.00 100.00,-3.20 100.00,0.00"/>
    <junction id="J78" type="dead_end" x="0.00" y="-100.00" incLanes="-E19_0" intLanes="" shape="0.00,-100.00 -3.20,-100.00 0.00,-100.00"/>
    <junction id="J79" type="dead_end" x="0.00" y="100.00" incLanes="E20_0" intLanes="" shape="0.00,100.00 3.20,100.00 0.00,100.00"/>

    <junction id=":J59_12_0" type="internal" x="-0.96" y="3.20" incLanes=":J59_2_0 E19_0" intLanes=":J59_4_0 :J59_5_0 :J59_6_0 :J59_7_0 :J59_10_0 :J59_11_0"/>
    <junction id=":J59_13_0" type="internal" x="3.20" y="0.96" incLanes=":J59_5_0 E14_0" intLanes=":J59_1_0 :J59_2_0 :J59_7_0 :J59_8_0 :J59_9_0 :J59_10_0"/>
    <junction id=":J59_14_0" type="internal" x="0.96" y="-3.20" incLanes=":J59_8_0 -E20_0" intLanes=":J59_0_0 :J59_1_0 :J59_4_0 :J59_5_0 :J59_10_0 :J59_11_0"/>
    <junction id=":J59_15_0" type="internal" x="-3.20" y="-0.96" incLanes=":J59_11_0 -E15_0" intLanes=":J59_1_0 :J59_2_0 :J59_3_0 :J59_4_0 :J59_7_0 :J59_8_0"/>

    <connection from="-E15" to="E20" fromLane="0" toLane="0" via=":J59_3_0" tl="J59" linkIndex="3" dir="r" state="o"/>
    <connection from="-E15" to="-E14" fromLane="0" toLane="0" via=":J59_4_0" tl="J59" linkIndex="4" dir="s" state="o"/>
    <connection from="-E15" to="-E19" fromLane="0" toLane="0" via=":J59_5_0" tl="J59" linkIndex="5" dir="l" state="o"/>
    <connection from="-E20" to="-E14" fromLane="0" toLane="0" via=":J59_0_0" tl="J59" linkIndex="0" dir="r" state="O"/>
    <connection from="-E20" to="-E19" fromLane="0" toLane="0" via=":J59_1_0" tl="J59" linkIndex="1" dir="s" state="O"/>
    <connection from="-E20" to="E15" fromLane="0" toLane="0" via=":J59_2_0" tl="J59" linkIndex="2" dir="l" state="o"/>
    <connection from="E14" to="-E19" fromLane="0" toLane="0" via=":J59_9_0" tl="J59" linkIndex="9" dir="r" state="o"/>
    <connection from="E14" to="E15" fromLane="0" toLane="0" via=":J59_10_0" tl="J59" linkIndex="10" dir="s" state="o"/>
    <connection from="E14" to="E20" fromLane="0" toLane="0" via=":J59_11_0" tl="J59" linkIndex="11" dir="l" state="o"/>
    <connection from="E19" to="E15" fromLane="0" toLane="0" via=":J59_6_0" tl="J59" linkIndex="6" dir="r" state="O"/>
    <connection from="E19" to="E20" fromLane="0" toLane="0" via=":J59_7_0" tl="J59" linkIndex="7" dir="s" state="O"/>
    <connection from="E19" to="-E14" fromLane="0" toLane="0" via=":J59_8_0" tl="J59" linkIndex="8" dir="l" state="o"/>

    <connection from=":J59_0" to="-E14" fromLane="0" toLane="0" dir="r" state="M"/>
    <connection from=":J59_1" to="-E19" fromLane="0" toLane="0" dir="s" state="M"/>
    <connection from=":J59_2" to="E15" fromLane="0" toLane="0" via=":J59_12_0" dir="l" state="m"/>
    <connection from=":J59_12" to="E15" fromLane="0" toLane="0" dir="l" state="M"/>
    <connection from=":J59_3" to="E20" fromLane="0" toLane="0" dir="r" state="M"/>
    <connection from=":J59_4" to="-E14" fromLane="0" toLane="0" dir="s" state="M"/>
    <connection from=":J59_5" to="-E19" fromLane="0" toLane="0" via=":J59_13_0" dir="l" state="m"/>
    <connection from=":J59_13" to="-E19" fromLane="0" toLane="0" dir="l" state="M"/>
    <connection from=":J59_6" to="E15" fromLane="0" toLane="0" dir="r" state="M"/>
    <connection from=":J59_7" to="E20" fromLane="0" toLane="0" dir="s" state="M"/>
    <connection from=":J59_8" to="-E14" fromLane="0" toLane="0" via=":J59_14_0" dir="l" state="m"/>
    <connection from=":J59_14" to="-E14" fromLane="0" toLane="0" dir="l" state="M"/>
    <connection from=":J59_9" to="-E19" fromLane="0" toLane="0" dir="r" state="M"/>
    <connection from=":J59_10" to="E15" fromLane="0" toLane="0" dir="s" state="M"/>
    <connection from=":J59_11" to="E20" fromLane="0" toLane="0" via=":J59_15_0" dir="l" state="m"/>
    <connection from=":J59_15" to="E20" fromLane="0" toLane="0" dir="l" state="M"/>

</net>
